case69.py
# CASE69, distribution
from numpy import array

def case():

    ## PYPOWER Case Format : Version 2
    ppc = {"version": "2"}

    ##-----  Power Flow Data  -----##
    ## system MVA base
    ppc["baseMVA"] = 10

    ## bus data
    # bus_i, type, Pd, Qd, Gs, Bs, area, Vm, Va, baseKV, zone, Vmax, Vmin
    ppc["bus"] = array([
        [1, 3, 0, 0, 0, 0, 1, 1, 0, 12.7, 1, 1.1, 0.9],
        [2, 1, 0, 0, 0, 0, 1, 1, 0, 12.7, 1, 1.1, 0.9],
        [3, 1, 0, 0, 0, 0, 1, 1, 0, 12.7, 1, 1.1, 0.9],
        [4, 1, 0, 0, 0, 0, 1, 1, 0, 12.7, 1, 1.1, 0.9],
        [5, 1, 0, 0, 0, 0, 1, 1, 0, 12.7, 1, 1.1, 0.9],
        [6, 1, 0.0026, 0.0022, 0, 0, 1, 1, 0, 12.7, 1, 1.1, 0.9],
        [7, 1, 0.0404, 0.03, 0, 0, 1, 1, 0, 12.7, 1, 1.1, 0.9],
        [8, 1, 0.075, 0.054, 0, 0, 1, 1, 0, 12.7, 1, 1.1, 0.9],
        [9, 1, 0.03, 0.022, 0, 0, 1, 1, 0, 12.7, 1, 1.1, 0.9],
        [10, 1, 0.028, 0.019, 0, 0, 1, 1, 0, 12.7, 1, 1.1, 0.9],
        [11, 1, 0.145, 0.104, 0, 0, 1, 1, 0, 12.7, 1, 1.1, 0.9],
        [12, 1, 0.145, 0.104, 0, 0, 1, 1, 0, 12.7, 1, 1.1, 0.9],
        [13, 1, 0.008, 0.0055, 0, 0, 1, 1, 0, 12.7, 1, 1.1, 0.9],
        [14, 1, 0.008, 0.0055, 0, 0, 1, 1, 0, 12.7, 1, 1.1, 0.9],
        [15, 1, 0, 0, 0, 0, 1, 1, 0, 12.7, 1, 1.1, 0.9],
        [16, 1, 0.0455, 0.03, 0, 0, 1, 1, 0, 12.7, 1, 1.1, 0.9],
        [17, 1, 0.06, 0.035, 0, 0, 1, 1, 0, 12.7, 1, 1.1, 0.9],
        [18, 1, 0.06, 0.035, 0, 0, 1, 1, 0, 12.7, 1, 1.1, 0.9],
        [19, 1, 0, 0, 0, 0, 1, 1, 0, 12.7, 1, 1.1, 0.9],
        [20, 1, 0.001, 0.0006, 0, 0, 1, 1, 0, 12.7, 1, 1.1, 0.9],
        [21, 1, 0.114, 0.081, 0, 0, 1, 1, 0, 12.7, 1, 1.1, 0.9],
        [22, 1, 0.0053, 0.0035, 0, 0, 1, 1, 0, 12.7, 1, 1.1, 0.9],
        [23, 1, 0, 0, 0, 0, 1, 1, 0, 12.7, 1, 1.1, 0.9],
        [24, 1, 0.028, 0.02, 0, 0, 1, 1, 0, 12.7, 1, 1.1, 0.9],
        [25, 1, 0, 0, 0, 0, 1, 1, 0, 12.7, 1, 1.1, 0.9],
        [26, 1, 0.014, 0.01, 0, 0, 1, 1, 0, 12.7, 1, 1.1, 0.9],
        [27, 1, 0.014, 0.01, 0, 0, 1, 1, 0, 12.7, 1, 1.1, 0.9],
        [28, 1, 0.026, 0.0186, 0, 0, 1, 1, 0, 12.7, 1, 1.1, 0.9],
        [29, 1, 0.026, 0.0186, 0, 0, 1, 1, 0, 12.7, 1, 1.1, 0.9],
        [30, 1, 0, 0, 0, 0, 1, 1, 0, 12.7, 1, 1.1, 0.9],
        [31, 1, 0, 0, 0, 0, 1, 1, 0, 12.7, 1, 1.1, 0.9],
        [32, 1, 0, 0, 0, 0, 1, 1, 0, 12.7, 1, 1.1, 0.9],
        [33, 1, 0.014, 0.01, 0, 0, 1, 1, 0, 12.7, 1, 1.1, 0.9],
        [34, 1, 0.0195, 0.014, 0, 0, 1, 1, 0, 12.7, 1, 1.1, 0.9],
        [35, 1, 0.006, 0.004, 0, 0, 1, 1, 0, 12.7, 1, 1.1, 0.9],
        [36, 1, 0.026, 0.0186, 0, 0, 1, 1, 0, 12.7, 1, 1.1, 0.9],
        [37, 1, 0.026, 0.0186, 0, 0, 1, 1, 0, 12.7, 1, 1.1, 0.9],
        [38, 1, 0, 0, 0, 0, 1, 1, 0, 12.7, 1, 1.1, 0.9],
        [39, 1, 0.024, 0.017, 0, 0, 1, 1, 0, 12.7, 1, 1.1, 0.9],
        [40, 1, 0.024, 0.017, 0, 0, 1, 1, 0, 12.7, 1, 1.1, 0.9],
        [41, 1, 0.0012, 0.001, 0, 0, 1, 1, 0, 12.7, 1, 1.1, 0.9],
        [42, 1, 0, 0, 0, 0, 1, 1, 0, 12.7, 1, 1.1, 0.9],
        [43, 1, 0.006, 0.0043, 0, 0, 1, 1, 0, 12.7, 1, 1.1, 0.9],
        [44, 1, 0, 0, 0, 0, 1, 1, 0, 12.7, 1, 1.1, 0.9],
        [45, 1, 0.0392, 0.0263, 0, 0, 1, 1, 0, 12.7, 1, 1.1, 0.9],
        [46, 1, 0.0392, 0.0263, 0, 0, 1, 1, 0, 12.7, 1, 1.1, 0.9],
        [47, 1, 0, 0, 0, 0, 1, 1, 0, 12.7, 1, 1.1, 0.9],
        [48, 1, 0.079, 0.0564, 0, 0, 1, 1, 0, 12.7, 1, 1.1, 0.9],
        [49, 1, 0.3847, 0.2745, 0, 0, 1, 1, 0, 12.7, 1, 1.1, 0.9],
        [50, 1, 0.3847, 0.2745, 0, 0, 1, 1, 0, 12.7, 1, 1.1, 0.9],
        [51, 1, 0.0405, 0.0283, 0, 0, 1, 1, 0, 12.7, 1, 1.1, 0.9],
        [52, 1, 0.0036, 0.0027, 0, 0, 1, 1, 0, 12.7, 1, 1.1, 0.9],
        [53, 1, 0.0043, 0.0035, 0, 0, 1, 1, 0, 12.7, 1, 1.1, 0.9],
        [54, 1, 0.0264, 0.019, 0, 0, 1, 1, 0, 12.7, 1, 1.1, 0.9],
        [55, 1, 0.024, 0.0172, 0, 0, 1, 1, 0, 12.7, 1, 1.1, 0.9],
        [56, 1, 0, 0, 0, 0, 1, 1, 0, 12.7, 1, 1.1, 0.9],
        [57, 1, 0, 0, 0, 0, 1, 1, 0, 12.7, 1, 1.1, 0.9],
        [58, 1, 0, 0, 0, 0, 1, 1, 0, 12.7, 1, 1.1, 0.9],
        [59, 1, 0.1, 0.072, 0, 0, 1, 1, 0, 12.7, 1, 1.1, 0.9],
        [60, 1, 0, 0, 0, 0, 1, 1, 0, 12.7, 1, 1.1, 0.9],
        [61, 1, 1.244, 0.888, 0, 0, 1, 1, 0, 12.7, 1, 1.1, 0.9],
        [62, 1, 0.032, 0.023, 0, 0, 1, 1, 0, 12.7, 1, 1.1, 0.9],
        [63, 1, 0, 0, 0, 0, 1, 1, 0, 12.7, 1, 1.1, 0.9],
        [64, 1, 0.227, 0.162, 0, 0, 1, 1, 0, 12.7, 1, 1.1, 0.9],
        [65, 1, 0.059, 0.042, 0, 0, 1, 1, 0, 12.7, 1, 1.1, 0.9],
        [66, 1, 0.018, 0.013, 0, 0, 1, 1, 0, 12.7, 1, 1.1, 0.9],
        [67, 1, 0.018, 0.013, 0, 0, 1, 1, 0, 12.7, 1, 1.1, 0.9],
        [68, 1, 0.028, 0.02, 0, 0, 1, 1, 0, 12.7, 1, 1.1, 0.9],
        [69, 1, 0.028, 0.02, 0, 0, 1, 1, 0, 12.7, 1, 1.1, 0.9],
    ])

    ## generator data
    # bus, Pg, Qg, Qmax, Qmin, Vg, mBase, status, Pmax, Pmin, Pc1, Pc2, Qc1min, Qc1max, Qc2min, Qc2max, ramp_agc, ramp_10, ramp_30, ramp_q, apf
    ppc["gen"] = array([
        [1, 0, 0, 999, -999, 1, 100, 1, 999, 0, 0, 0, 0, 0, 0, 0, 0, 0, 0, 0, 0],
    ], dtype='float32')

    ## branch data
    # fbus, tbus, r, x, b, rateA, rateB, rateC, ratio, angle, status, angmin, angmax
    ppc["branch"] = array([
        [1, 2, 3.12e-05, 7.487e-05, 0, 999, 999, 999, 0, 0, 1, -360, 360],
        [2, 3, 3.12e-05, 7.487e-05, 0, 999, 999, 999, 0, 0, 1, -360, 360],
        [3, 4, 9.359e-05, 0.00022461, 0, 999, 999, 999, 0, 0, 1, -360, 360],
        [4, 5, 0.00156605, 0.00183434, 0, 999, 999, 999, 0, 0, 1, -360, 360],
        [5, 6, 0.02283567, 0.01162997, 0, 999, 999, 999, 0, 0, 1, -360, 360],
        [6, 7, 0.02377779, 0.01211039, 0, 999, 999, 999, 0, 0, 1, -360, 360],
        [7, 8, 0.00575259, 0.00293245, 0, 999, 999, 999, 0, 0, 1, -360, 360],
        [8, 9, 0.00307595, 0.00156605, 0, 999, 999, 999, 0, 0, 1, -360, 360],
        [9, 10, 0.05109948, 0.01688966, 0, 999, 999, 999, 0, 0, 1, -360, 360],
        [10, 11, 0.01167988, 0.0038621, 0, 999, 999, 999, 0, 0, 1, -360, 360],
        [11, 12, 0.04438605, 0.01466848, 0, 999, 999, 999, 0, 0, 1, -360, 360],
        [12, 13, 0.0642643, 0.02121346, 0, 999, 999, 999, 0, 0, 1, -360, 360],
        [13, 14, 0.0651378, 0.02152542, 0, 999, 999, 999, 0, 0, 1, -360, 360],
        [14, 15, 0.0660113, 0.02181243, 0, 999, 999, 999, 0, 0, 1, -360, 360],
        [15, 16, 0.01226637, 0.00405551, 0, 999, 999, 999, 0, 0, 1, -360, 360],
        [16, 17, 0.02335976, 0.0077242, 0, 999, 999, 999, 0, 0, 1, -360, 360],
        [17, 18, 0.00029324, 9.983e-05, 0, 999, 999, 999, 0, 0, 1, -360, 360],
        [18, 19, 0.02043979, 0.00675711, 0, 999, 999, 999, 0, 0, 1, -360, 360],
        [19, 20, 0.01313987, 0.00434252, 0, 999, 999, 999, 0, 0, 1, -360, 360],
        [20, 21, 0.02131329, 0.00704412, 0, 999, 999, 999, 0, 0, 1, -360, 360],
        [21, 22, 0.0008735, 0.00028701, 0, 999, 999, 999, 0, 0, 1, -360, 360],
        [22, 23, 0.00992665, 0.00328185, 0, 999, 999, 999, 0, 0, 1, -360, 360],
        [23, 24, 0.02160653, 0.00714394, 0, 999, 999, 999, 0, 0, 1, -360, 360],
        [24, 25, 0.04671953, 0.01544215, 0, 999, 999, 999, 0, 0, 1, -360, 360],
        [25, 26, 0.01927305, 0.00637028, 0, 999, 999, 999, 0, 0, 1, -360, 360],
        [26, 27, 0.01080639, 0.00356885, 0, 999, 999, 999, 0, 0, 1, -360, 360],
        [3, 28, 0.00027453, 0.00067384, 0, 999, 999, 999, 0, 0, 1, -360, 360],
        [28, 29, 0.00399312, 0.00976443, 0, 999, 999, 999, 0, 0, 1, -360, 360],
        [29, 30, 0.02481975, 0.00820462, 0, 999, 999, 999, 0, 0, 1, -360, 360],
        [30, 31, 0.00437996, 0.00144751, 0, 999, 999, 999, 0, 0, 1, -360, 360],
        [31, 32, 0.02189978, 0.00723753, 0, 999, 999, 999, 0, 0, 1, -360, 360],
        [32, 33, 0.05234733, 0.01756974, 0, 999, 999, 999, 0, 0, 1, -360, 360],
        [33, 34, 0.10656644, 0.03522682, 0, 999, 999, 999, 0, 0, 1, -360, 360],
        [34, 35, 0.09196659, 0.03040388, 0, 999, 999, 999, 0, 0, 1, -360, 360],
        [3, 36, 0.00027453, 0.00067384, 0, 999, 999, 999, 0, 0, 1, -360, 360],
        [36, 37, 0.00399312, 0.00976443, 0, 999, 999, 999, 0, 0, 1, -360, 360],
        [37, 38, 0.00656993, 0.00767428, 0, 999, 999, 999, 0, 0, 1, -360, 360],
        [38, 39, 0.00189673, 0.00221493, 0, 999, 999, 999, 0, 0, 1, -360, 360],
        [39, 40, 0.00011231, 0.00013102, 0, 999, 999, 999, 0, 0, 1, -360, 360],
        [40, 41, 0.04544048, 0.0530898, 0, 999, 999, 999, 0, 0, 1, -360, 360],
        [41, 42, 0.01934168, 0.02260481, 0, 999, 999, 999, 0, 0, 1, -360, 360],
        [42, 43, 0.00255809, 0.00298236, 0, 999, 999, 999, 0, 0, 1, -360, 360],
        [43, 44, 0.00057401, 0.00072375, 0, 999, 999, 999, 0, 0, 1, -360, 360],
        [44, 45, 0.00679455, 0.00856649, 0, 999, 999, 999, 0, 0, 1, -360, 360],
        [45, 46, 5.615e-05, 7.487e-05, 0, 999, 999, 999, 0, 0, 1, -360, 360],
        [4, 47, 0.00021213, 0.0005241, 0, 999, 999, 999, 0, 0, 1, -360, 360],
        [47, 48, 0.0053096, 0.01299636, 0, 999, 999, 999, 0, 0, 1, -360, 360],
        [48, 49, 0.01808135, 0.04424254, 0, 999, 999, 999, 0, 0, 1, -360, 360],
        [49, 50, 0.00512867, 0.01254714, 0, 999, 999, 999, 0, 0, 1, -360, 360],
        [8, 51, 0.00579003, 0.00295117, 0, 999, 999, 999, 0, 0, 1, -360, 360],
        [51, 52, 0.02070808, 0.00695053, 0, 999, 999, 999, 0, 0, 1, -360, 360],
        [9, 53, 0.0108563, 0.00552798, 0, 999, 999, 999, 0, 0, 1, -360, 360],
        [53, 54, 0.01266568, 0.00645139, 0, 999, 999, 999, 0, 0, 1, -360, 360],
        [54, 55, 0.01773196, 0.0090282, 0, 999, 999, 999, 0, 0, 1, -360, 360],
        [55, 56, 0.01755102, 0.00894085, 0, 999, 999, 999, 0, 0, 1, -360, 360],
        [56, 57, 0.09920412, 0.03329889, 0, 999, 999, 999, 0, 0, 1, -360, 360],
        [57, 58, 0.04889702, 0.01640924, 0, 999, 999, 999, 0, 0, 1, -360, 360],
        [58, 59, 0.01897981, 0.00627669, 0, 999, 999, 999, 0, 0, 1, -360, 360],
        [59, 60, 0.02408976, 0.0073124, 0, 999, 999, 999, 0, 0, 1, -360, 360],
        [60, 61, 0.03166421, 0.01612847, 0, 999, 999, 999, 0, 0, 1, -360, 360],
        [61, 62, 0.00607703, 0.00309467, 0, 999, 999, 999, 0, 0, 1, -360, 360],
        [62, 63, 0.00904692, 0.00460457, 0, 999, 999, 999, 0, 0, 1, -360, 360],
        [63, 64, 0.04432989, 0.02257986, 0, 999, 999, 999, 0, 0, 1, -360, 360],
        [64, 65, 0.06495062, 0.03308052, 0, 999, 999, 999, 0, 0, 1, -360, 360],
        [11, 66, 0.01255338, 0.00381218, 0, 999, 999, 999, 0, 0, 1, -360, 360],
        [66, 67, 0.00029324, 8.735e-05, 0, 999, 999, 999, 0, 0, 1, -360, 360],
        [12, 68, 0.04613304, 0.01524873, 0, 999, 999, 999, 0, 0, 1, -360, 360],
        [68, 69, 0.00029324, 9.983e-05, 0, 999, 999, 999, 0, 0, 1, -360, 360],
    ])
    
    ppc["gencost"] = array([
        [2, 0, 0, 3, 0, 20, 0],
    ], dtype='float32')

    return ppc
